opendss_networks/LV11_216bus/Groundings.dss
new reactor.tx_busgrounding_B1041 phases=1 bus1=B1041.4 bus2=B1041.0 r=0.3 x=0.0
new reactor.loadbusgrounding_B126 phases=1 bus1=B126.4 bus2=B126.0 r=10.0 x=0.0
new reactor.loadbusgrounding_B3017 phases=1 bus1=B3017.4 bus2=B3017.0 r=10.0 x=0.0
new reactor.loadbusgrounding_B2221 phases=1 bus1=B2221.4 bus2=B2221.0 r=10.0 x=0.0
new reactor.loadbusgrounding_B2667 phases=1 bus1=B2667.4 bus2=B2667.0 r=10.0 x=0.0
new reactor.loadbusgrounding_B1919 phases=1 bus1=B1919.4 bus2=B1919.0 r=10.0 x=0.0
new reactor.loadbusgrounding_B3074 phases=1 bus1=B3074.4 bus2=B3074.0 r=10.0 x=0.0
new reactor.loadbusgrounding_B838 phases=1 bus1=B838.4 bus2=B838.0 r=10.0 x=0.0
new reactor.loadbusgrounding_B977 phases=1 bus1=B977.4 bus2=B977.0 r=10.0 x=0.0
new reactor.loadbusgrounding_B1029 phases=1 bus1=B1029.4 bus2=B1029.0 r=10.0 x=0.0
new reactor.loadbusgrounding_B3059 phases=1 bus1=B3059.4 bus2=B3059.0 r=10.0 x=0.0
new reactor.loadbusgrounding_B2896 phases=1 bus1=B2896.4 bus2=B2896.0 r=10.0 x=0.0
new reactor.loadbusgrounding_B3256 phases=1 bus1=B3256.4 bus2=B3256.0 r=10.0 x=0.0
new reactor.loadbusgrounding_B306 phases=1 bus1=B306.4 bus2=B306.0 r=10.0 x=0.0
new reactor.loadbusgrounding_B572 phases=1 bus1=B572.4 bus2=B572.0 r=10.0 x=0.0
new reactor.loadbusgrounding_B1353 phases=1 bus1=B1353.4 bus2=B1353.0 r=10.0 x=0.0
new reactor.loadbusgrounding_B2419 phases=1 bus1=B2419.4 bus2=B2419.0 r=10.0 x=0.0
new reactor.loadbusgrounding_B1814 phases=1 bus1=B1814.4 bus2=B1814.0 r=10.0 x=0.0
new reactor.loadbusgrounding_B2088 phases=1 bus1=B2088.4 bus2=B2088.0 r=10.0 x=0.0
new reactor.loadbusgrounding_B3317 phases=1 bus1=B3317.4 bus2=B3317.0 r=10.0 x=0.0
new reactor.loadbusgrounding_B882 phases=1 bus1=B882.4 bus2=B882.0 r=10.0 x=0.0
new reactor.loadbusgrounding_B2915 phases=1 bus1=B2915.4 bus2=B2915.0 r=10.0 x=0.0
new reactor.loadbusgrounding_B1777 phases=1 bus1=B1777.4 bus2=B1777.0 r=10.0 x=0.0
new reactor.loadbusgrounding_B753 phases=1 bus1=B753.4 bus2=B753.0 r=10.0 x=0.0
new reactor.loadbusgrounding_B1680 phases=1 bus1=B1680.4 bus2=B1680.0 r=10.0 x=0.0
new reactor.loadbusgrounding_B2661 phases=1 bus1=B2661.4 bus2=B2661.0 r=10.0 x=0.0
new reactor.loadbusgrounding_B352 phases=1 bus1=B352.4 bus2=B352.0 r=10.0 x=0.0
new reactor.loadbusgrounding_B2356 phases=1 bus1=B2356.4 bus2=B2356.0 r=10.0 x=0.0
new reactor.loadbusgrounding_B2076 phases=1 bus1=B2076.4 bus2=B2076.0 r=10.0 x=0.0
new reactor.loadbusgrounding_B588 phases=1 bus1=B588.4 bus2=B588.0 r=10.0 x=0.0
new reactor.loadbusgrounding_B1708 phases=1 bus1=B1708.4 bus2=B1708.0 r=10.0 x=0.0
new reactor.loadbusgrounding_B2265 phases=1 bus1=B2265.4 bus2=B2265.0 r=10.0 x=0.0
new reactor.loadbusgrounding_B1822 phases=1 bus1=B1822.4 bus2=B1822.0 r=10.0 x=0.0
new reactor.loadbusgrounding_B2204 phases=1 bus1=B2204.4 bus2=B2204.0 r=10.0 x=0.0
new reactor.loadbusgrounding_B158 phases=1 bus1=B158.4 bus2=B158.0 r=10.0 x=0.0
new reactor.loadbusgrounding_B218 phases=1 bus1=B218.4 bus2=B218.0 r=10.0 x=0.0
new reactor.loadbusgrounding_B502 phases=1 bus1=B502.4 bus2=B502.0 r=10.0 x=0.0
new reactor.loadbusgrounding_B1815 phases=1 bus1=B1815.4 bus2=B1815.0 r=10.0 x=0.0
new reactor.loadbusgrounding_B2689 phases=1 bus1=B2689.4 bus2=B2689.0 r=10.0 x=0.0
new reactor.loadbusgrounding_B3279 phases=1 bus1=B3279.4 bus2=B3279.0 r=10.0 x=0.0
new reactor.loadbusgrounding_B1467 phases=1 bus1=B1467.4 bus2=B1467.0 r=10.0 x=0.0
new reactor.loadbusgrounding_B1074 phases=1 bus1=B1074.4 bus2=B1074.0 r=10.0 x=0.0
new reactor.loadbusgrounding_B1548 phases=1 bus1=B1548.4 bus2=B1548.0 r=10.0 x=0.0
new reactor.loadbusgrounding_B3045 phases=1 bus1=B3045.4 bus2=B3045.0 r=10.0 x=0.0
new reactor.loadbusgrounding_B2235 phases=1 bus1=B2235.4 bus2=B2235.0 r=10.0 x=0.0
new reactor.loadbusgrounding_B3060 phases=1 bus1=B3060.4 bus2=B3060.0 r=10.0 x=0.0
new reactor.loadbusgrounding_B3194 phases=1 bus1=B3194.4 bus2=B3194.0 r=10.0 x=0.0
new reactor.loadbusgrounding_B322 phases=1 bus1=B322.4 bus2=B322.0 r=10.0 x=0.0
new reactor.loadbusgrounding_B1079 phases=1 bus1=B1079.4 bus2=B1079.0 r=10.0 x=0.0
new reactor.loadbusgrounding_B3105 phases=1 bus1=B3105.4 bus2=B3105.0 r=10.0 x=0.0
new reactor.loadbusgrounding_B831 phases=1 bus1=B831.4 bus2=B831.0 r=10.0 x=0.0
new reactor.loadbusgrounding_B1076 phases=1 bus1=B1076.4 bus2=B1076.0 r=10.0 x=0.0
new reactor.loadbusgrounding_B2472 phases=1 bus1=B2472.4 bus2=B2472.0 r=10.0 x=0.0
new reactor.loadbusgrounding_B1888 phases=1 bus1=B1888.4 bus2=B1888.0 r=10.0 x=0.0
new reactor.loadbusgrounding_B1712 phases=1 bus1=B1712.4 bus2=B1712.0 r=10.0 x=0.0
new reactor.loadbusgrounding_B3148 phases=1 bus1=B3148.4 bus2=B3148.0 r=10.0 x=0.0
new reactor.loadbusgrounding_B900 phases=1 bus1=B900.4 bus2=B900.0 r=10.0 x=0.0
new reactor.loadbusgrounding_B469 phases=1 bus1=B469.4 bus2=B469.0 r=10.0 x=0.0
new reactor.loadbusgrounding_B569 phases=1 bus1=B569.4 bus2=B569.0 r=10.0 x=0.0
new reactor.loadbusgrounding_B2602 phases=1 bus1=B2602.4 bus2=B2602.0 r=10.0 x=0.0
new reactor.loadbusgrounding_B1918 phases=1 bus1=B1918.4 bus2=B1918.0 r=10.0 x=0.0
new reactor.loadbusgrounding_B1447 phases=1 bus1=B1447.4 bus2=B1447.0 r=10.0 x=0.0
new reactor.loadbusgrounding_B1167 phases=1 bus1=B1167.4 bus2=B1167.0 r=10.0 x=0.0
new reactor.loadbusgrounding_B2960 phases=1 bus1=B2960.4 bus2=B2960.0 r=10.0 x=0.0
new reactor.loadbusgrounding_B1340 phases=1 bus1=B1340.4 bus2=B1340.0 r=10.0 x=0.0
new reactor.loadbusgrounding_B1717 phases=1 bus1=B1717.4 bus2=B1717.0 r=10.0 x=0.0
new reactor.loadbusgrounding_B1064 phases=1 bus1=B1064.4 bus2=B1064.0 r=10.0 x=0.0
new reactor.loadbusgrounding_B430 phases=1 bus1=B430.4 bus2=B430.0 r=10.0 x=0.0
new reactor.loadbusgrounding_B1078 phases=1 bus1=B1078.4 bus2=B1078.0 r=10.0 x=0.0
new reactor.loadbusgrounding_B93 phases=1 bus1=B93.4 bus2=B93.0 r=10.0 x=0.0
new reactor.loadbusgrounding_B1574 phases=1 bus1=B1574.4 bus2=B1574.0 r=10.0 x=0.0
new reactor.loadbusgrounding_B1664 phases=1 bus1=B1664.4 bus2=B1664.0 r=10.0 x=0.0
new reactor.loadbusgrounding_B898 phases=1 bus1=B898.4 bus2=B898.0 r=10.0 x=0.0
new reactor.loadbusgrounding_B1126 phases=1 bus1=B1126.4 bus2=B1126.0 r=10.0 x=0.0
new reactor.loadbusgrounding_B2159 phases=1 bus1=B2159.4 bus2=B2159.0 r=10.0 x=0.0
new reactor.loadbusgrounding_B735 phases=1 bus1=B735.4 bus2=B735.0 r=10.0 x=0.0
new reactor.loadbusgrounding_B1107 phases=1 bus1=B1107.4 bus2=B1107.0 r=10.0 x=0.0
new reactor.loadbusgrounding_B2931 phases=1 bus1=B2931.4 bus2=B2931.0 r=10.0 x=0.0
new reactor.loadbusgrounding_B2829 phases=1 bus1=B2829.4 bus2=B2829.0 r=10.0 x=0.0
new reactor.loadbusgrounding_B2916 phases=1 bus1=B2916.4 bus2=B2916.0 r=10.0 x=0.0
new reactor.loadbusgrounding_B901 phases=1 bus1=B901.4 bus2=B901.0 r=10.0 x=0.0
new reactor.loadbusgrounding_B91 phases=1 bus1=B91.4 bus2=B91.0 r=10.0 x=0.0
new reactor.loadbusgrounding_B596 phases=1 bus1=B596.4 bus2=B596.0 r=10.0 x=0.0
new reactor.loadbusgrounding_B1577 phases=1 bus1=B1577.4 bus2=B1577.0 r=10.0 x=0.0
new reactor.loadbusgrounding_B2102 phases=1 bus1=B2102.4 bus2=B2102.0 r=10.0 x=0.0
new reactor.loadbusgrounding_B2681 phases=1 bus1=B2681.4 bus2=B2681.0 r=10.0 x=0.0
new reactor.loadbusgrounding_B2126 phases=1 bus1=B2126.4 bus2=B2126.0 r=10.0 x=0.0
new reactor.loadbusgrounding_B3295 phases=1 bus1=B3295.4 bus2=B3295.0 r=10.0 x=0.0
new reactor.loadbusgrounding_B2907 phases=1 bus1=B2907.4 bus2=B2907.0 r=10.0 x=0.0
new reactor.loadbusgrounding_B1056 phases=1 bus1=B1056.4 bus2=B1056.0 r=10.0 x=0.0
new reactor.loadbusgrounding_B2229 phases=1 bus1=B2229.4 bus2=B2229.0 r=10.0 x=0.0
new reactor.loadbusgrounding_B1541 phases=1 bus1=B1541.4 bus2=B1541.0 r=10.0 x=0.0
new reactor.loadbusgrounding_B2692 phases=1 bus1=B2692.4 bus2=B2692.0 r=10.0 x=0.0
new reactor.loadbusgrounding_B1612 phases=1 bus1=B1612.4 bus2=B1612.0 r=10.0 x=0.0
new reactor.loadbusgrounding_B115 phases=1 bus1=B115.4 bus2=B115.0 r=10.0 x=0.0
new reactor.loadbusgrounding_B1793 phases=1 bus1=B1793.4 bus2=B1793.0 r=10.0 x=0.0
new reactor.loadbusgrounding_B2186 phases=1 bus1=B2186.4 bus2=B2186.0 r=10.0 x=0.0
new reactor.loadbusgrounding_B685 phases=1 bus1=B685.4 bus2=B685.0 r=10.0 x=0.0
new reactor.loadbusgrounding_B431 phases=1 bus1=B431.4 bus2=B431.0 r=10.0 x=0.0
new reactor.loadbusgrounding_B2035 phases=1 bus1=B2035.4 bus2=B2035.0 r=10.0 x=0.0
new reactor.loadbusgrounding_B3032 phases=1 bus1=B3032.4 bus2=B3032.0 r=10.0 x=0.0
new reactor.loadbusgrounding_B1187 phases=1 bus1=B1187.4 bus2=B1187.0 r=10.0 x=0.0
new reactor.loadbusgrounding_B675 phases=1 bus1=B675.4 bus2=B675.0 r=10.0 x=0.0
new reactor.loadbusgrounding_B2423 phases=1 bus1=B2423.4 bus2=B2423.0 r=10.0 x=0.0
new reactor.loadbusgrounding_B477 phases=1 bus1=B477.4 bus2=B477.0 r=10.0 x=0.0
new reactor.loadbusgrounding_B2937 phases=1 bus1=B2937.4 bus2=B2937.0 r=10.0 x=0.0
new reactor.loadbusgrounding_B3120 phases=1 bus1=B3120.4 bus2=B3120.0 r=10.0 x=0.0
new reactor.loadbusgrounding_B910 phases=1 bus1=B910.4 bus2=B910.0 r=10.0 x=0.0
new reactor.loadbusgrounding_B2425 phases=1 bus1=B2425.4 bus2=B2425.0 r=10.0 x=0.0
new reactor.loadbusgrounding_B1443 phases=1 bus1=B1443.4 bus2=B1443.0 r=10.0 x=0.0
new reactor.loadbusgrounding_B68 phases=1 bus1=B68.4 bus2=B68.0 r=10.0 x=0.0
